6
AutoTS.T9XnCsLi-separated-energy_0_opt_0.out
C          0.34014        0.08897       -0.71323
C         -0.92954        0.06628       -0.34368
H          0.86865       -0.81869       -0.98179
H          0.90012        1.01604       -0.76063
H         -1.48945       -0.86080       -0.29561
H         -1.45775        0.97394       -0.07451
